data_MgMOF-74

_audit_creation_method RASPA-1.0
_audit_creation_date 2023-7-13
_audit_author_name 'Felipe Lopes de Oliveira'

_cell_length_a    26.1359
_cell_length_b    26.1359
_cell_length_c    6.942
_cell_angle_alpha 90
_cell_angle_beta  90
_cell_angle_gamma 120
_cell_volume      4106.67

_symmetry_cell_setting          triclinic
_symmetry_space_group_name_Hall 'P 1'
_symmetry_space_group_name_H-M  'P 1'
_symmetry_Int_Tables_number     1

_symmetry_equiv_pos_as_xyz 'x,y,z'

loop_
_atom_site_label
_atom_site_type_symbol
_atom_site_fract_x
_atom_site_fract_y
_atom_site_fract_z
_atom_site_charge
Mg0      Mg     0.314860000000     0.956450000000     0.471890000000     0          
Mg1      Mg     0.376883330000     0.025076670000     0.138556670000     0          
Mg2      Mg     0.308256670000     0.018473330000     0.805223330000     0          
Mg3      Mg     0.351806670000     0.376883330000     0.861443330000     0          
Mg4      Mg     0.289783330000     0.308256670000     0.194776670000     0          
Mg5      Mg     0.358410000000     0.314860000000     0.528110000000     0          
Mg6      Mg     0.981526670000     0.289783330000     0.805223330000     0          
Mg7      Mg     0.043550000000     0.358410000000     0.471890000000     0          
Mg8      Mg     0.974923330000     0.351806670000     0.138556670000     0          
Mg9      Mg     0.018473330000     0.710216670000     0.194776670000     0          
Mg10     Mg     0.956450000000     0.641590000000     0.528110000000     0          
Mg11     Mg     0.025076670000     0.648193330000     0.861443330000     0          
Mg12     Mg     0.648193330000     0.623116670000     0.138556670000     0          
Mg13     Mg     0.710216670000     0.691743330000     0.805223330000     0          
Mg14     Mg     0.641590000000     0.685140000000     0.471890000000     0          
Mg15     Mg     0.685140000000     0.043550000000     0.528110000000     0          
Mg16     Mg     0.623116670000     0.974923330000     0.861443330000     0          
Mg17     Mg     0.691743330000     0.981526670000     0.194776670000     0          
H18      H      0.475303330000     0.973926670000     0.145846670000     0          
H19      H      0.359406670000     0.168043330000     0.812513330000     0          
H20      H      0.165290000000     0.858030000000     0.479180000000     0          
H21      H      0.191363330000     0.359406670000     0.187486670000     0          
H22      H      0.307260000000     0.165290000000     0.520820000000     0          
H23      H      0.501376670000     0.475303330000     0.854153330000     0          
H24      H      0.141970000000     0.307260000000     0.479180000000     0          
H25      H      0.026073330000     0.501376670000     0.145846670000     0          
H26      H      0.831956670000     0.191363330000     0.812513330000     0          
H27      H      0.858030000000     0.692740000000     0.520820000000     0          
H28      H      0.973926670000     0.498623330000     0.854153330000     0          
H29      H      0.168043330000     0.808636670000     0.187486670000     0          
H30      H      0.808636670000     0.640593330000     0.812513330000     0          
H31      H      0.692740000000     0.834710000000     0.479180000000     0          
H32      H      0.498623330000     0.524696670000     0.145846670000     0          
H33      H      0.524696670000     0.026073330000     0.854153330000     0          
H34      H      0.640593330000     0.831956670000     0.187486670000     0          
H35      H      0.834710000000     0.141970000000     0.520820000000     0          
C36      C      0.420866670000     0.014203330000     0.760363330000     0          
C37      C      0.319130000000     0.073330000000     0.427030000000     0          
C38      C      0.260003330000     0.912466670000     0.093696670000     0          
C39      C      0.245800000000     0.319130000000     0.572970000000     0          
C40      C      0.347536670000     0.260003330000     0.906303330000     0          
C41      C      0.406663330000     0.420866670000     0.239636670000     0          
C42      C      0.459556670000     0.005403330000     0.624163330000     0          
C43      C      0.327930000000     0.120820000000     0.290830000000     0          
C44      C      0.212513330000     0.873776670000     0.957496670000     0          
C45      C      0.207110000000     0.327930000000     0.709170000000     0          
C46      C      0.338736670000     0.212513330000     0.042503330000     0          
C47      C      0.454153330000     0.459556670000     0.375836670000     0          
C48      C      0.444073330000     0.989946670000     0.421566670000     0          
C49      C      0.343386670000     0.120793330000     0.088233330000     0          
C50      C      0.212540000000     0.889260000000     0.754900000000     0          
C51      C      0.222593330000     0.343386670000     0.911766670000     0          
C52      C      0.323280000000     0.212540000000     0.245100000000     0          
C53      C      0.454126670000     0.444073330000     0.578433330000     0          
C54      C      0.485743330000     0.985376670000     0.302246670000     0          
C55      C      0.347956670000     0.167033330000     0.968913330000     0          
C56      C      0.166300000000     0.847590000000     0.635580000000     0          
C57      C      0.180923330000     0.347956670000     0.031086670000     0          
C58      C      0.318710000000     0.166300000000     0.364420000000     0          
C59      C      0.500366670000     0.485743330000     0.697753330000     0          
C60      C      0.087533330000     0.347536670000     0.093696670000     0          
C61      C      0.985796670000     0.406663330000     0.760363330000     0          
C62      C      0.926670000000     0.245800000000     0.427030000000     0          
C63      C      0.912466670000     0.652463330000     0.906303330000     0          
C64      C      0.014203330000     0.593336670000     0.239636670000     0          
C65      C      0.073330000000     0.754200000000     0.572970000000     0          
C66      C      0.126223330000     0.338736670000     0.957496670000     0          
C67      C      0.994596670000     0.454153330000     0.624163330000     0          
C68      C      0.879180000000     0.207110000000     0.290830000000     0          
C69      C      0.873776670000     0.661263330000     0.042503330000     0          
C70      C      0.005403330000     0.545846670000     0.375836670000     0          
C71      C      0.120820000000     0.792890000000     0.709170000000     0          
C72      C      0.110740000000     0.323280000000     0.754900000000     0          
C73      C      0.010053330000     0.454126670000     0.421566670000     0          
C74      C      0.879206670000     0.222593330000     0.088233330000     0          
C75      C      0.889260000000     0.676720000000     0.245100000000     0          
C76      C      0.989946670000     0.545873330000     0.578433330000     0          
C77      C      0.120793330000     0.777406670000     0.911766670000     0          
C78      C      0.152410000000     0.318710000000     0.635580000000     0          
C79      C      0.014623330000     0.500366670000     0.302246670000     0          
C80      C      0.832966670000     0.180923330000     0.968913330000     0          
C81      C      0.847590000000     0.681290000000     0.364420000000     0          
C82      C      0.985376670000     0.499633330000     0.697753330000     0          
C83      C      0.167033330000     0.819076670000     0.031086670000     0          
C84      C      0.754200000000     0.680870000000     0.427030000000     0          
C85      C      0.652463330000     0.739996670000     0.093696670000     0          
C86      C      0.593336670000     0.579133330000     0.760363330000     0          
C87      C      0.579133330000     0.985796670000     0.239636670000     0          
C88      C      0.680870000000     0.926670000000     0.572970000000     0          
C89      C      0.739996670000     0.087533330000     0.906303330000     0          
C90      C      0.792890000000     0.672070000000     0.290830000000     0          
C91      C      0.661263330000     0.787486670000     0.957496670000     0          
C92      C      0.545846670000     0.540443330000     0.624163330000     0          
C93      C      0.540443330000     0.994596670000     0.375836670000     0          
C94      C      0.672070000000     0.879180000000     0.709170000000     0          
C95      C      0.787486670000     0.126223330000     0.042503330000     0          
C96      C      0.777406670000     0.656613330000     0.088233330000     0          
C97      C      0.676720000000     0.787460000000     0.754900000000     0          
C98      C      0.545873330000     0.555926670000     0.421566670000     0          
C99      C      0.555926670000     0.010053330000     0.578433330000     0          
C100     C      0.656613330000     0.879206670000     0.911766670000     0          
C101     C      0.787460000000     0.110740000000     0.245100000000     0          
C102     C      0.819076670000     0.652043330000     0.968913330000     0          
C103     C      0.681290000000     0.833700000000     0.635580000000     0          
C104     C      0.499633330000     0.514256670000     0.302246670000     0          
C105     C      0.514256670000     0.014623330000     0.697753330000     0          
C106     C      0.652043330000     0.832966670000     0.031086670000     0          
C107     C      0.833700000000     0.152410000000     0.364420000000     0          
O108     O      0.368906670000     0.005003330000     0.693713330000     0          
O109     O      0.328330000000     0.030570000000     0.360380000000     0          
O110     O      0.302763330000     0.964426670000     0.027046670000     0          
O111     O      0.297760000000     0.328330000000     0.639620000000     0          
O112     O      0.338336670000     0.302763330000     0.972953330000     0          
O113     O      0.363903330000     0.368906670000     0.306286670000     0          
O114     O      0.436186670000     0.030483330000     0.943533330000     0          
O115     O      0.302850000000     0.072370000000     0.610200000000     0          
O116     O      0.260963330000     0.897146670000     0.276866670000     0          
O117     O      0.230480000000     0.302850000000     0.389800000000     0          
O118     O      0.363816670000     0.260963330000     0.723133330000     0          
O119     O      0.405703330000     0.436186670000     0.056466670000     0          
O120     O      0.391283330000     0.979556670000     0.340496670000     0          
O121     O      0.353776670000     0.078393330000     0.007163330000     0          
O122     O      0.254940000000     0.942050000000     0.673830000000     0          
O123     O      0.275383330000     0.353776670000     0.992836670000     0          
O124     O      0.312890000000     0.254940000000     0.326170000000     0          
O125     O      0.411726670000     0.391283330000     0.659503330000     0          
O126     O      0.035573330000     0.338336670000     0.027046670000     0          
O127     O      0.994996670000     0.363903330000     0.693713330000     0          
O128     O      0.969430000000     0.297760000000     0.360380000000     0          
O129     O      0.964426670000     0.661663330000     0.972953330000     0          
O130     O      0.005003330000     0.636096670000     0.306286670000     0          
O131     O      0.030570000000     0.702240000000     0.639620000000     0          
O132     O      0.102853330000     0.363816670000     0.276866670000     0          
O133     O      0.969516670000     0.405703330000     0.943533330000     0          
O134     O      0.927630000000     0.230480000000     0.610200000000     0          
O135     O      0.897146670000     0.636183330000     0.723133330000     0          
O136     O      0.030483330000     0.594296670000     0.056466670000     0          
O137     O      0.072370000000     0.769520000000     0.389800000000     0          
O138     O      0.057950000000     0.312890000000     0.673830000000     0          
O139     O      0.020443330000     0.411726670000     0.340496670000     0          
O140     O      0.921606670000     0.275383330000     0.007163330000     0          
O141     O      0.942050000000     0.687110000000     0.326170000000     0          
O142     O      0.979556670000     0.588273330000     0.659503330000     0          
O143     O      0.078393330000     0.724616670000     0.992836670000     0          
O144     O      0.702240000000     0.671670000000     0.360380000000     0          
O145     O      0.661663330000     0.697236670000     0.027046670000     0          
O146     O      0.636096670000     0.631093330000     0.693713330000     0          
O147     O      0.631093330000     0.994996670000     0.306286670000     0          
O148     O      0.671670000000     0.969430000000     0.639620000000     0          
O149     O      0.697236670000     0.035573330000     0.972953330000     0          
O150     O      0.769520000000     0.697150000000     0.610200000000     0          
O151     O      0.636183330000     0.739036670000     0.276866670000     0          
O152     O      0.594296670000     0.563813330000     0.943533330000     0          
O153     O      0.563813330000     0.969516670000     0.056466670000     0          
O154     O      0.697150000000     0.927630000000     0.389800000000     0          
O155     O      0.739036670000     0.102853330000     0.723133330000     0          
O156     O      0.724616670000     0.646223330000     0.007163330000     0          
O157     O      0.687110000000     0.745060000000     0.673830000000     0          
O158     O      0.588273330000     0.608716670000     0.340496670000     0          
O159     O      0.608716670000     0.020443330000     0.659503330000     0          
O160     O      0.646223330000     0.921606670000     0.992836670000     0          
O161     O      0.745060000000     0.057950000000     0.326170000000     0          


